water
     InChI-Pipeline  2D

  3  2  0  0  0  0  0  0  0  0999 V2000
    0.0000    0.0000    0.0000 O   0  0  0  0  0  0  0  0  0  0  0  0
    0.9584    0.0000    0.0000 H   0  0  0  0  0  0  0  0  0  0  0  0
   -0.2392    0.9267    0.0000 H   0  0  0  0  0  0  0  0  0  0  0  0
  1  2  1  0  0  0  0
  1  3  1  0  0  0  0
M  END
> <InChI>
InChI=1S/H2O/h1H2

$$$$
methane
     InChI-Pipeline  2D

  5  4  0  0  0  0  0  0  0  0999 V2000
    0.0000    0.0000    0.0000 C   0  0  0  0  0  0  0  0  0  0  0  0
    1.0900    0.0000    0.0000 H   0  0  0  0  0  0  0  0  0  0  0  0
   -1.0900    0.0000    0.0000 H   0  0  0  0  0  0  0  0  0  0  0  0
    0.0000    1.0900    0.0000 H   0  0  0  0  0  0  0  0  0  0  0  0
    0.0000   -1.0900    0.0000 H   0  0  0  0  0  0  0  0  0  0  0  0
  1  2  1  0  0  0  0
  1  3  1  0  0  0  0
  1  4  1  0  0  0  0
  1  5  1  0  0  0  0
M  END
> <InChI>
InChI=1S/CH4/h1H4

$$$$
formaldehyde
     InChI-Pipeline  2D

  4  3  0  0  0  0  0  0  0  0999 V2000
    0.0000    0.0000    0.0000 C   0  0  0  0  0  0  0  0  0  0  0  0
    1.2000    0.0000    0.0000 O   0  0  0  0  0  0  0  0  0  0  0  0
   -0.6000    0.8660    0.0000 H   0  0  0  0  0  0  0  0  0  0  0  0
   -0.6000   -0.8660    0.0000 H   0  0  0  0  0  0  0  0  0  0  0  0
  1  2  2  0  0  0  0
  1  3  1  0  0  0  0
  1  4  1  0  0  0  0
M  END
> <InChI>
InChI=1S/CH2O/c1-2/h1H2

$$$$
ethanol
     InChI-Pipeline  2D

  9  8  0  0  0  0  0  0  0  0999 V2000
    0.0000    0.0000    0.0000 C   0  0  0  0  0  0  0  0  0  0  0  0
    1.5400    0.0000    0.0000 C   0  0  0  0  0  0  0  0  0  0  0  0
    2.3100    0.8900    0.0000 O   0  0  0  0  0  0  0  0  0  0  0  0
   -0.5100    0.8900    0.0000 H   0  0  0  0  0  0  0  0  0  0  0  0
   -0.5100   -0.8900    0.0000 H   0  0  0  0  0  0  0  0  0  0  0  0
   -0.5100    0.0000    0.0000 H   0  0  0  0  0  0  0  0  0  0  0  0
    2.0500   -0.8900    0.0000 H   0  0  0  0  0  0  0  0  0  0  0  0
    2.0500    0.8900    0.0000 H   0  0  0  0  0  0  0  0  0  0  0  0
    3.0800    0.8900    0.0000 H   0  0  0  0  0  0  0  0  0  0  0  0
  1  2  1  0  0  0  0
  2  3  1  0  0  0  0
  1  4  1  0  0  0  0
  1  5  1  0  0  0  0
  1  6  1  0  0  0  0
  2  7  1  0  0  0  0
  2  8  1  0  0  0  0
  3  9  1  0  0  0  0
M  END
> <InChI>
InChI=1S/C2H6O/c1-2-3/h3H,2H2,1H3

$$$$
acetic_acid
     InChI-Pipeline  2D

  8  7  0  0  0  0  0  0  0  0999 V2000
    0.0000    0.0000    0.0000 C   0  0  0  0  0  0  0  0  0  0  0  0
    1.5400    0.0000    0.0000 C   0  0  0  0  0  0  0  0  0  0  0  0
    2.3100    0.8900    0.0000 O   0  0  0  0  0  0  0  0  0  0  0  0
    2.3100   -0.8900    0.0000 O   0  0  0  0  0  0  0  0  0  0  0  0
   -0.5100    0.8900    0.0000 H   0  0  0  0  0  0  0  0  0  0  0  0
   -0.5100   -0.8900    0.0000 H   0  0  0  0  0  0  0  0  0  0  0  0
   -0.5100    0.0000    0.0000 H   0  0  0  0  0  0  0  0  0  0  0  0
    3.0800    0.8900    0.0000 H   0  0  0  0  0  0  0  0  0  0  0  0
  1  2  1  0  0  0  0
  2  3  2  0  0  0  0
  2  4  1  0  0  0  0
  1  5  1  0  0  0  0
  1  6  1  0  0  0  0
  1  7  1  0  0  0  0
  4  8  1  0  0  0  0
M  END
> <InChI>
InChI=1S/C2H4O2/c1-2(3)4/h1H3,(H,3,4)

$$$$
borneol
     InChI-Pipeline  2D

  1  0  0  0  0  0  0  0  0  0999 V2000
    0.0000    0.0000    0.0000 C   0  0  0  0  0  0  0  0  0  0  0  0
M  END
> <InChI>
InChI=1S/C10H18O/c1-9(2)7-4-5-10(9,3)8(11)6-7/h7-8,11H,4-6H2,1-3H3/t7-,8+,10+/m0/s1

$$$$
morphine
     InChI-Pipeline  2D

  1  0  0  0  0  0  0  0  0  0999 V2000
    0.0000    0.0000    0.0000 C   0  0  0  0  0  0  0  0  0  0  0  0
M  END
> <InChI>
InChI=1S/C17H19NO3/c1-18-7-6-17-10-3-5-13(20)16(17)21-15-12(19)4-2-9(14(15)17)8-11(10)18/h2-5,10-11,13,16,19-20H,6-8H2,1H3/t10-,11+,13-,16-,17-/m0/s1

$$$$
water_duplicate
     InChI-Pipeline  2D

  3  2  0  0  0  0  0  0  0  0999 V2000
    0.0000    0.0000    0.0000 O   0  0  0  0  0  0  0  0  0  0  0  0
    0.9584    0.0000    0.0000 H   0  0  0  0  0  0  0  0  0  0  0  0
   -0.2392    0.9267    0.0000 H   0  0  0  0  0  0  0  0  0  0  0  0
  1  2  1  0  0  0  0
  1  3  1  0  0  0  0
M  END
> <InChI>
InChI=1S/H2O/h1H2

$$$$
ethanol_duplicate
     InChI-Pipeline  2D

  9  8  0  0  0  0  0  0  0  0999 V2000
    0.0000    0.0000    0.0000 C   0  0  0  0  0  0  0  0  0  0  0  0
    1.5400    0.0000    0.0000 C   0  0  0  0  0  0  0  0  0  0  0  0
    2.3100    0.8900    0.0000 O   0  0  0  0  0  0  0  0  0  0  0  0
   -0.5100    0.8900    0.0000 H   0  0  0  0  0  0  0  0  0  0  0  0
   -0.5100   -0.8900    0.0000 H   0  0  0  0  0  0  0  0  0  0  0  0
   -0.5100    0.0000    0.0000 H   0  0  0  0  0  0  0  0  0  0  0  0
    2.0500   -0.8900    0.0000 H   0  0  0  0  0  0  0  0  0  0  0  0
    2.0500    0.8900    0.0000 H   0  0  0  0  0  0  0  0  0  0  0  0
    3.0800    0.8900    0.0000 H   0  0  0  0  0  0  0  0  0  0  0  0
  1  2  1  0  0  0  0
  2  3  1  0  0  0  0
  1  4  1  0  0  0  0
  1  5  1  0  0  0  0
  1  6  1  0  0  0  0
  2  7  1  0  0  0  0
  2  8  1  0  0  0  0
  3  9  1  0  0  0  0
M  END
> <InChI>
InChI=1S/C2H6O/c1-2-3/h3H,2H2,1H3

$$$$
